13
	Energy:       6.2905137
C          1.10977       -0.85738        0.41343
N          1.82014        0.15326       -0.37771
H          1.69789       -1.80221        0.39068
C         -0.27480       -1.12810       -0.19069
C          0.99703       -0.40656        1.87733
H          1.94803       -0.18882       -1.35800
H          2.76604        0.32481        0.03500
H          1.28541        1.05233       -0.39941
H         -0.17634       -1.44675       -1.25010
O         -0.93491       -2.13226        0.52045
O          0.26965        0.78120        1.98838
H          0.53549       -1.18908        2.51655
H          0.90749        1.42907        2.38168
