56
Properties=species:S:1:pos:R:3:forces:R:3 energy=-22333.1015625 free_energy=-22333.1015625 pbc="F F F"
C        2.84456515       2.99267206      -0.47231650      -0.00000357       0.00000264       0.00000489
C        1.82516152       2.26401033      -1.36186709       0.00000137      -0.00000072      -0.00000203
C        2.48764190       1.15706032      -2.22384764       0.00000665       0.00000831      -0.00000444
O        2.50197417      -0.11185600      -0.10633007       0.00000232       0.00000177      -0.00000194
C        2.19995645      -0.13864125      -1.49888064      -0.00000256      -0.00000368       0.00000679
C        0.71780395       1.53090770      -0.55940254       0.00000072      -0.00000238       0.00000072
C        1.15039491       0.08362576      -0.51315940      -0.00000456      -0.00000608       0.00000143
C        2.24881562       4.20019605       0.25154430       0.00000620      -0.00001478       0.00000083
C        3.28104327       5.05436348       0.99683342      -0.00000171       0.00001621       0.00000040
C        4.01717535       4.30313498       2.10784149       0.00001207      -0.00000101      -0.00000644
C        4.77212320       5.18392241       3.11275166      -0.00000450       0.00000040       0.00000544
C        5.92646976       6.02430543       2.54756230      -0.00001004      -0.00000151      -0.00000815
C        5.51999036       7.35224905       1.89954448       0.00000748      -0.00000054      -0.00000103
C        6.71970981       8.25353712       1.60296233      -0.00000472      -0.00000918      -0.00000465
C        6.33105701       9.57189191       0.93811807       0.00000489       0.00001353      -0.00000145
C        7.52591981      10.48461605       0.66972836      -0.00001140      -0.00001082      -0.00000443
C        7.14127137      11.79403362      -0.01590643      -0.00001097      -0.00001031       0.00000163
C        8.33452955      12.71171477      -0.27338519      -0.00001210       0.00001198       0.00000313
C        7.95432811      14.02034691      -0.96468590      -0.00000483       0.00001761       0.00000653
C        9.15542049      14.92997589      -1.21428676       0.00000262       0.00000995      -0.00000158
H        1.37468106       3.02156370      -2.01705868      -0.00000006       0.00000028      -0.00000039
H        1.47701992       3.86702121       0.96075986      -0.00000066      -0.00000060       0.00000057
H        3.27910345       2.28577195       0.24140764      -0.00000142       0.00000194      -0.00000140
H        3.67021799       3.34193048      -1.10787679       0.00000141       0.00000092      -0.00000129
H        2.36133429      -1.09516166      -1.99656405      -0.00000032       0.00000064      -0.00000042
H        0.44889973      -0.68881969      -0.19867924       0.00000208       0.00000401      -0.00000256
H        1.73897711       4.83917703      -0.48207306      -0.00000220       0.00000402      -0.00000379
H        2.76133734       5.92126089       1.42879793       0.00000486      -0.00000589      -0.00000304
H        4.00272889       5.45347413       0.27003649      -0.00000342      -0.00000317       0.00000503
H        4.72444485       3.58759486       1.66328864      -0.00000104       0.00000093       0.00000134
H        3.28856695       3.69961701       2.66900351      -0.00000542      -0.00000349       0.00000478
H        5.17364258       4.52027518       3.89044039      -0.00000079       0.00000155      -0.00000228
H        4.06114250       5.84721578       3.62813795       0.00000245      -0.00000044      -0.00000132
H        4.83288350       7.88240486       2.57543701       0.00000093      -0.00000054       0.00000003
H        6.50929194       5.42435853       1.83254579      -0.00000103       0.00000209       0.00000206
H        6.61395032       6.25827807       3.37287978       0.00000571       0.00000182       0.00000601
H        4.96059753       7.18588434       0.97042954       0.00000099      -0.00000115       0.00000102
H        5.60573800      10.10135576       1.57274433      -0.00000201       0.00000127       0.00000092
H        7.42953229       7.71631367       0.95647923      -0.00000138      -0.00000089       0.00000098
H        7.25645242       8.46359457       2.53953044       0.00000043       0.00000144       0.00000314
H        5.81532901       9.36280432      -0.01002393       0.00000002      -0.00000261      -0.00000226
H        6.40196337      12.32441218       0.60138759       0.00000608       0.00000024      -0.00000277
H        8.25905249       9.95055014       0.04808481       0.00000238       0.00000167      -0.00000089
H        8.03299559      10.70785535       1.61945523       0.00000693       0.00000236       0.00000714
H        6.64204590      11.57211741      -0.97005176       0.00000336       0.00000066       0.00000263
H        7.21300218      14.55112520      -0.35249400       0.00000741      -0.00000980      -0.00000483
H        9.07658669      12.18105865      -0.88726660       0.00000799      -0.00000668      -0.00000551
H        8.83231312      12.93856514       0.68045569       0.00000111      -0.00000172       0.00000162
H        7.46007864      13.79529922      -1.91922359      -0.00000226      -0.00000468      -0.00000221
H        8.85598695      15.85893160      -1.71070870       0.00000042      -0.00000459       0.00000337
H        9.89929958      14.43728910      -1.85037084       0.00000144      -0.00000328      -0.00000367
H        9.64990901      15.19919499      -0.27422914      -0.00000197       0.00000072       0.00000095
H        3.56557116       1.31983733      -2.35353262      -0.00000367      -0.00000084       0.00000016
H        2.03040703       1.11544630      -3.21968627       0.00000003      -0.00000021       0.00000061
H        0.58011256       1.93822437       0.44944543       0.00000016       0.00000130       0.00000149
H       -0.24567118       1.59434927      -1.07926932      -0.00000183       0.00000136      -0.00000110
