56
Properties=species:S:1:pos:R:3:forces:R:3 methane=T energy=-22333.03895968099 free_energy=-22333.03895968099 pbc="F F F"
C       -0.26727688       0.78549544       0.33751055       0.00614962       0.01999543      -0.00145580
C        1.19744224       0.34549962       0.47909939       0.00583819       0.00286217       0.01115654
C        1.42203246      -1.02364325      -0.21094417       0.00775019      -0.00394277      -0.00292137
O        1.26511601       0.34217013      -2.25493068       0.00944404       0.00014602      -0.02095355
C        1.98390757      -0.68333158      -1.57370725       0.01658026       0.01342618      -0.01548942
C        2.22546528       1.28928099      -0.19616179       0.00107979      -0.00351647      -0.00167687
C        2.46110916       0.69574660      -1.56497892      -0.00038724      -0.03228912      -0.01243460
C       -0.56261892       2.19441317       0.84503495      -0.01840765       0.02331182       0.00281223
C       -2.05047656       2.55607938       0.79609876      -0.03578987      -0.00533750      -0.01344789
C       -2.64123614       2.48229749      -0.61457724      -0.02147007       0.00952285      -0.00807370
C       -4.00448234       3.15475950      -0.81310032      -0.00590075       0.00256216       0.00904909
C       -5.15451776       2.62169870       0.05361237       0.00390684       0.00294247       0.00050942
C       -5.25350602       3.25654885       1.44408768       0.00233737       0.00339219      -0.00515965
C       -6.53558797       2.88723572       2.18934330       0.00233069       0.00448807      -0.00340438
C       -6.71564788       3.67287459       3.48838669      -0.00582466       0.00081140      -0.00111421
C       -8.06500070       3.43171578       4.16471495      -0.00510149       0.00347291      -0.00006635
C       -8.30506794       4.33340119       5.37534333      -0.00483583      -0.00123275      -0.00027556
C       -9.69499752       4.16437850       5.98699909       0.00142703       0.00155568       0.00263476
C       -9.96908461       5.12612206       7.14272123       0.00139640      -0.00286702       0.00062281
C      -11.37343737       4.97313368       7.72267910       0.00440853      -0.00214385       0.00033495
H        1.42025676       0.27259636       1.55158412      -0.00901394      -0.00340055       0.01593883
H       -0.01354770       2.92946262       0.24145609       0.00460560       0.01628380       0.00191496
H       -0.56210964       0.69939216      -0.71143155      -0.00423444       0.01537785       0.00161959
H       -0.88730638       0.06782657       0.89486526       0.00426004       0.01396871      -0.01787531
H        2.40472635      -1.45940920      -2.20986976       0.01158807      -0.04521754      -0.00603082
H        3.27170563       1.05905286      -2.19532807       0.00669762      -0.01162513       0.01432572
H       -0.19668191       2.30270167       1.87528386       0.00332302       0.00115264       0.00948723
H       -2.17724613       3.57444427       1.19194870       0.00130268      -0.01515437      -0.00877520
H       -2.60670309       1.88491488       1.46548170      -0.01596263       0.00441246       0.01803467
H       -2.72270024       1.42925685      -0.92072594       0.01486981       0.00826483       0.02526449
H       -1.93243172       2.94733049      -1.31530239       0.00011579      -0.01133153       0.00286361
H       -4.27838653       3.04532596      -1.87140185       0.01120062       0.00289098       0.02093481
H       -3.90711705       4.23662359      -0.63885120      -0.00097354      -0.00400890      -0.00002609
H       -5.21728882       4.35059480       1.32737733      -0.00354466       0.00228500      -0.00321433
H       -5.08264756       1.52755927       0.14247553      -0.00839043       0.00702204       0.00199397
H       -6.09901308       2.82223221      -0.47083517       0.00436431      -0.00551396       0.00683270
H       -4.38622919       2.98991908       2.06118888      -0.00169046       0.00738104      -0.00274408
H       -6.61832092       4.74650809       3.26668665      -0.00475969      -0.00132948       0.00524429
H       -6.55107300       1.80757135       2.39920512      -0.00193332       0.00648898      -0.00284220
H       -7.39769149       3.08375527       1.53409322       0.00085202       0.00334101       0.00213280
H       -5.90167218       3.43091468       4.18777662      -0.00607822       0.00587527      -0.00329500
H       -8.17445350       5.38330658       5.07157883       0.00116932      -0.00625531      -0.00143129
H       -8.14836373       2.37644327       4.46486740      -0.00217495       0.00568016      -0.00624964
H       -8.86660592       3.60483150       3.43084793      -0.00178781      -0.00231596      -0.00105942
H       -7.53808865       4.14036945       6.14052297      -0.00326450       0.00068066      -0.00659892
H       -9.82853346       6.15763625       6.79038992       0.00129384      -0.00413459       0.00641203
H       -9.82100466       3.12774411       6.33380858      -0.00191604       0.00334824      -0.00389025
H      -10.45432447       4.31839912       5.20535319       0.00395897      -0.00133468       0.00530739
H       -9.22155536       4.96555781       7.93199443      -0.00011214      -0.00047008      -0.00170025
H      -11.54677530       5.67602412       8.54423938       0.00113231      -0.00555993       0.00172968
H      -11.53207131       3.95919961       8.10861442       0.00259746      -0.00073943      -0.00199684
H      -12.13606541       5.15869241       6.95689797       0.00281133      -0.00300742       0.00393313
H        0.49415395      -1.60155124      -0.28304068      -0.00177385      -0.03618670      -0.02546607
H        2.15080729      -1.63329573       0.33424076       0.03637521       0.01819455       0.01938696
H        1.88478423       2.32720835      -0.25629218       0.00110992       0.00803729      -0.01421621
H        3.17196905       1.28656501       0.35768891      -0.01094874      -0.01025978       0.00340860
