56        
Properties=species:S:1:pos:R:3:forces:R:3 energy=-22333.1015625 free_energy=-22333.1015625 pbc="F F F"
O 0.770556 0.881283 -2.747790
C 2.047539 1.380712 -2.360009
C 2.138195 1.798216 -0.910398
C 1.800300 -0.053107 -2.435266
C 1.722366 -0.621250 -1.035864
C 1.554693 0.607882 -0.104010
C 0.093066 0.815829 0.322411
C -0.070422 1.909540 1.377907
C -1.485937 2.012356 1.957817
C -2.554543 2.359596 0.919510
C -3.898021 2.836149 1.488318
C -4.673457 1.821797 2.341540
C -4.242644 1.728361 3.809278
C -5.217251 0.909509 4.657354
C -4.789438 0.790836 6.118182
C -5.778197 -0.001132 6.971375
C -5.340173 -0.139959 8.427908
C -6.334738 -0.921601 9.283581
C -5.896947 -1.067673 10.740278
C -6.900660 -1.848764 11.585741
H 2.136486 0.456082 0.814994
H 0.217310 2.883024 0.954585
H -0.518673 1.030597 -0.559397
H -0.282481 -0.128530 0.740468
H 2.137025 -0.676219 -3.264126
H 2.586267 1.937980 -3.126096
H 0.626337 1.713953 2.204164
H -1.480088 2.781930 2.742622
H -1.736404 1.063484 2.453054
H -2.733768 1.490337 0.269800
H -2.165546 3.152518 0.263794
H -4.527588 3.127261 0.636646
H -3.745348 3.756787 2.071578
H -4.173210 2.744368 4.225115
H -4.623416 0.826473 1.874963
H -5.735326 2.106010 2.328224
H -3.238742 1.295352 3.901659
H -4.665962 1.796405 6.545680
H -5.320087 -0.097439 4.226218
H -6.215670 1.367823 4.607502
H -3.801613 0.311056 6.169942
H -5.195880 0.860178 8.861311
H -5.914351 -1.001600 6.535858
H -6.762721 0.486963 6.933689
H -4.359745 -0.636022 8.467263
H -5.748236 -0.070357 11.175382
H -6.483107 -1.920675 8.848918
H -7.314798 -0.424246 9.249206
H -4.919692 -1.567420 10.776285
H -6.562936 -1.939582 12.623405
H -7.045465 -2.861357 11.192822
H -7.878619 -1.354601 11.595880
H 0.896488 -1.337209 -0.933033
H 2.657157 -1.150390 -0.815258
H 1.602962 2.738649 -0.732211
H 3.192365 1.960777 -0.655701