17        
Properties=species:S:1:pos:R:3:forces:R:3 energy=-8429.416015625 free_energy=-8429.416015625 pbc="F F F"
O 0.772050 0.878396 -2.748996
C 2.044822 1.382615 -2.357558
C 2.130028 1.799355 -0.906393
C 1.802650 -0.052777 -2.435642
C 1.720990 -0.625073 -1.038280
C 1.554966 0.602404 -0.103697
C 0.101209 0.824645 0.319642
H 3.181642 1.973739 -0.649975
H 1.577550 2.728237 -0.715284
H 2.652946 -1.159916 -0.820444
H 0.891720 -1.336771 -0.936417
H 2.584656 1.941091 -3.122446
H 2.143596 -0.673148 -3.264659
H -0.270490 -0.042022 0.878166
H -0.554261 0.981983 -0.539755
H 0.023617 1.701190 0.972995
H 2.140328 0.453894 0.810825
