17
	Energy:       8.5017814
C         -1.59324        0.47584       -0.00000
C         -0.05790        0.47584       -0.00000
C         -2.10501       -0.72663        0.80587
C         -2.10501        0.37916       -1.44430
C         -2.10502        1.77497        0.63843
H         -1.75533       -0.54004       -1.92760
H         -1.75534        1.22577       -2.04579
H         -3.20034        0.37698       -1.47695
H         -1.75533       -1.67084        0.37344
H         -3.20033       -0.75382        0.82409
H         -1.75533       -0.68558        1.84358
H          0.33806       -0.44118       -0.45065
H          0.33806        0.54408        1.01949
H          0.33806        1.32462       -0.56884
H         -1.75534        1.87258        1.67235
H         -3.20034        1.80434        0.65286
H         -1.75534        2.65313        0.08402
